21
Aspirin
C     0.00000000     0.00000000     0.00000000
C     0.00000000     0.00000000     1.36867400
C     1.16035584     0.00000000    -0.69557030
C     1.18041818    -0.00303792     2.04851342
C     2.40164947    -0.01711071     1.36028933
C     2.33235204    -0.03537861    -0.02516178
H    -0.97443524     0.01254878     1.87989852
H    -0.98958397    -0.01656471    -0.51395882
H     1.13483238     0.03804538    -1.88672459
H     3.30222028    -0.03179392    -0.54862684
C     3.72247291    -0.03315123     2.00893585
O     3.76401094    -0.09477429     3.27418623
O     4.71707554    -0.03003799     1.31138646
H     4.76378815    -0.08257222     3.65537617
O     1.12563638    -0.03914821     3.40555518
C     1.27937582     1.13244986     4.06840544
C     1.26862905     0.96667584     5.53002131
O     1.39937214     2.14581604     3.50058003
H     1.25841534     1.96491994     5.90947013
H     1.83670319     0.18992519     5.88661314
H     0.20727279     0.49396140     5.80637014
